Version 4.1
SHEET 1 1528 980
WIRE -576 -256 -576 -288
WIRE -448 -256 -448 -288
WIRE -336 -256 -336 -288
WIRE -112 -256 -144 -256
WIRE 48 -256 16 -256
WIRE -112 -224 -144 -224
WIRE -448 -160 -448 -176
WIRE -336 -160 -336 -176
WIRE -576 -144 -576 -176
WIRE -576 -144 -608 -144
WIRE -608 -128 -608 -144
WIRE -576 -112 -576 -144
WIRE -96 -112 -96 -144
WIRE -64 -112 -64 -144
WIRE -576 0 -576 -32
FLAG -576 -288 VCC
FLAG -576 0 VEE
FLAG -608 -128 0
FLAG -336 -160 0
FLAG -336 -288 S10
FLAG -448 -160 0
FLAG -448 -288 S8
FLAG -96 -112 S8
FLAG -64 -112 S10
FLAG 48 -256 ADG
FLAG -144 -224 VEE
FLAG -144 -256 VCC
SYMBOL voltage -576 -272 R0
WINDOW 123 0 0 Left 0
WINDOW 39 0 0 Left 0
SYMATTR InstName V1
SYMATTR Value 4.5
SYMBOL voltage -576 -128 R0
WINDOW 123 0 0 Left 0
WINDOW 39 0 0 Left 0
SYMATTR InstName V2
SYMATTR Value 4.5
SYMBOL voltage -336 -272 R0
WINDOW 123 0 0 Left 0
WINDOW 39 0 0 Left 0
WINDOW 3 24 44 Invisible 2
SYMATTR Value PULSE(0 1 500m 10u 10u 500m 1 8)
SYMATTR InstName V4
SYMBOL voltage -448 -272 R0
WINDOW 123 0 0 Left 0
WINDOW 39 0 0 Left 0
WINDOW 3 24 44 Left 2
SYMATTR Value 1
SYMATTR InstName V3
SYMBOL ADG -48 -208 R0
SYMATTR InstName X1
SYMATTR SpiceLine PR51={PR51} PR53={PR53}
TEXT -464 -64 Left 2 !.tran 0 8 0 1m
TEXT -464 -96 Left 2 ;.op
TEXT -464 -40 Left 2 !.param PR51=0.01 PR53=0.01
