Version 4.1
SHEET 1 1528 980
WIRE -96 -288 -96 -320
WIRE -576 -256 -576 -288
WIRE -448 -256 -448 -288
WIRE -144 -224 -176 -224
WIRE 0 -224 -32 -224
WIRE -448 -160 -448 -176
WIRE -576 -144 -576 -176
WIRE -576 -144 -608 -144
WIRE -608 -128 -608 -144
WIRE -96 -128 -96 -160
WIRE -576 -112 -576 -144
WIRE -576 0 -576 -32
FLAG -576 -288 VCC
FLAG -576 0 VEE
FLAG -608 -128 0
FLAG -448 -160 0
FLAG -448 -288 A
FLAG -96 -128 VEE
FLAG -96 -320 VCC
FLAG -176 -224 A
FLAG 0 -224 OUT
SYMBOL voltage -576 -272 R0
WINDOW 123 0 0 Left 0
WINDOW 39 0 0 Left 0
SYMATTR InstName V1
SYMATTR Value 4.5
SYMBOL voltage -576 -128 R0
WINDOW 123 0 0 Left 0
WINDOW 39 0 0 Left 0
SYMATTR InstName V2
SYMATTR Value 4.5
SYMBOL voltage -448 -272 R0
WINDOW 123 24 72 Left 2
WINDOW 39 0 0 Left 0
WINDOW 3 24 44 Left 2
SYMATTR Value2 AC 1
SYMATTR Value SINE(0 1 100 0.01)
SYMATTR InstName V3
SYMBOL Amplifier -96 -224 R0
SYMATTR InstName X1
SYMATTR SpiceLine PR66={PR66}
TEXT -464 -64 Left 2 ;.tran 0 0.1 0 startup
TEXT -464 -96 Left 2 ;.op
TEXT -464 0 Left 2 !.param PR66=0.5
TEXT -464 32 Left 2 !.options method=gear
TEXT -464 -32 Left 2 !.ac dec 10 0.1 1Meg
TEXT -464 64 Left 2 ;.step param PR66 0 1 0.1
