Version 4.1
SHEET 1 1528 980
WIRE -48 -272 -48 -304
WIRE -576 -256 -576 -288
WIRE -448 -256 -448 -288
WIRE -336 -256 -336 -288
WIRE -112 -224 -144 -224
WIRE 48 -224 16 -224
WIRE -112 -192 -144 -192
WIRE 48 -192 16 -192
WIRE -448 -160 -448 -176
WIRE -336 -160 -336 -176
WIRE -576 -144 -576 -176
WIRE -576 -144 -608 -144
WIRE -608 -128 -608 -144
WIRE -576 -112 -576 -144
WIRE -48 -112 -48 -144
WIRE -576 0 -576 -32
FLAG -576 -288 VCC
FLAG -576 0 VEE
FLAG -608 -128 0
FLAG -336 -160 0
FLAG -336 -288 S9
FLAG -448 -160 0
FLAG -448 -288 S7
FLAG -144 -224 S7
FLAG -144 -192 S9
FLAG -48 -112 VEE
FLAG -48 -304 VCC
FLAG 48 -224 LFO
FLAG 48 -192 B
SYMBOL voltage -576 -272 R0
WINDOW 123 0 0 Left 0
WINDOW 39 0 0 Left 0
SYMATTR InstName V1
SYMATTR Value 4.5
SYMBOL voltage -576 -128 R0
WINDOW 123 0 0 Left 0
WINDOW 39 0 0 Left 0
SYMATTR InstName V2
SYMATTR Value 4.5
SYMBOL voltage -336 -272 R0
WINDOW 123 0 0 Left 0
WINDOW 39 0 0 Left 0
WINDOW 3 24 44 Left 2
SYMATTR Value 0
SYMATTR InstName V4
SYMBOL voltage -448 -272 R0
WINDOW 123 0 0 Left 0
WINDOW 39 0 0 Left 0
WINDOW 3 24 44 Left 2
SYMATTR Value 1
SYMATTR InstName V3
SYMBOL LFO -48 -208 R0
SYMATTR SpiceLine PR49VAL={PR49}
SYMATTR InstName X1
TEXT -464 -64 Left 2 !.tran 0 8 0 1m
TEXT -464 -96 Left 2 ;.op
TEXT -464 -32 Left 2 !.param PR49=0.1
TEXT -464 0 Left 2 ;.step param PR49 0 1 0.1
