Version 4.1
SHEET 1 1632 1272
WIRE -160 160 -192 160
WIRE 16 160 -32 160
WIRE 64 160 16 160
WIRE 480 160 64 160
WIRE 704 160 480 160
WIRE -160 192 -192 192
WIRE 448 192 96 192
WIRE 992 240 960 240
WIRE 1152 240 1120 240
WIRE 576 272 544 272
WIRE 688 272 672 272
WIRE 784 272 688 272
WIRE 896 272 880 272
WIRE 992 272 896 272
WIRE 208 288 176 288
WIRE 384 288 336 288
WIRE 416 288 384 288
WIRE -144 304 -144 272
WIRE -112 304 -112 272
WIRE 480 304 480 160
WIRE 576 304 480 304
WIRE 704 304 704 160
WIRE 784 304 704 304
WIRE 992 304 960 304
WIRE 208 320 176 320
WIRE 448 336 448 192
WIRE 576 336 448 336
WIRE 784 336 752 336
WIRE 416 368 416 288
WIRE 576 368 416 368
WIRE 208 400 176 400
WIRE 384 400 336 400
WIRE 576 400 384 400
WIRE 64 432 64 160
WIRE 208 432 64 432
WIRE 384 432 336 432
WIRE 576 432 384 432
WIRE 800 432 800 400
WIRE -160 464 -192 464
WIRE 16 464 -32 464
WIRE 96 464 96 192
WIRE 96 464 16 464
WIRE 208 464 96 464
WIRE 576 464 544 464
WIRE -160 496 -192 496
WIRE 16 496 -32 496
WIRE 208 496 16 496
WIRE 208 528 176 528
WIRE 592 560 592 528
WIRE 624 560 624 528
WIRE 656 560 656 528
WIRE 288 576 288 544
WIRE 320 576 320 544
WIRE -144 592 -144 560
WIRE -112 592 -112 560
FLAG -192 464 VCC
FLAG -192 160 VCC
FLAG 176 400 VCC
FLAG 176 288 VCC
FLAG 544 272 VCC
FLAG 960 240 VCC
FLAG -192 496 VEE
FLAG 176 528 VEE
FLAG -192 192 VEE
FLAG 544 464 VEE
FLAG 176 320 VEE
FLAG 752 336 VEE
FLAG 960 304 VEE
FLAG 288 576 S1
FLAG 320 576 S2
FLAG 592 560 S3
FLAG 624 560 S4
FLAG 800 432 S5
FLAG 656 560 S6
FLAG -144 592 S7
FLAG -112 592 S9
FLAG -144 304 S8
FLAG -112 304 S10
FLAG 1152 240 OUT
FLAG 896 272 A
FLAG 688 272 C
FLAG 16 160 ADG
FLAG 16 464 LFO
FLAG 16 496 B
FLAG 384 400 RMP
FLAG 384 432 SQR
FLAG 384 288 WNS
SYMBOL ADG -96 208 R0
SYMATTR InstName X1
SYMATTR SpiceLine PR51={PR51} PR53={PR53}
SYMBOL LFO -96 496 R0
SYMATTR InstName X2
SYMATTR SpiceLine PR49={PR49}
SYMBOL VCO 272 528 R0
SYMATTR InstName X3
SYMATTR SpiceLine PR1={PR1} PR13={PR13} PR20={PR20}
SYMBOL VCF 624 416 R0
SYMATTR InstName X5
SYMBOL VCA 832 320 R0
SYMATTR InstName X6
SYMBOL Amplifier 1040 272 R0
SYMATTR InstName X7
SYMATTR SpiceLine PR66={PR66}
SYMBOL WhiteNoise 224 288 R0
SYMATTR InstName X4
TEXT -584 56 Left 2 ;S1: VCO AR Mod Enable\n0 = OFF\n1 = ON\n \nS2: VCO Sync Effect (via B)\n0 = OFF\n1 = ON\n \nS3: VCF Wave Select\n0   = Square\n0.5 = None\n1   = Ramp\n \nS4: VCF White Noise In\n0 = OFF\n1 = ON\n \nS5: VCA Enable\n0 = Enabled\n1 = Bypass\n \nS6: VCF Modulation Source\n0   = Low Frequency Oscillator\n0.5 = None\n1   = Attack Delay Generator\n \n(S9, S7): LFO Output\n00 = Square\n01 = Chirp\n1X = RC\n \nS8: ADG Trigger\n0 = Automatic Repeat\n1 = Manual via S10\n \nS10: ADG Manual Gate
TEXT 352 656 Left 2 ;R1:  VCO Frequency\nR13: VCO LFO Modulation Depth\nR20: VCO AR Modulation Depth\n \nR51: ADG Attack Time\nR53: ADG Release Time\n \nR49: LFO Rate\n \nR28: VCF Cutoff Frequency\nR29: VCF Resonance\nR38: VCF Modulation Depth\n \nR66: Volume
TEXT 88 768 Left 2 !.param PR51 = 0.1\n.param PR53 = 0.1
TEXT 88 656 Left 2 !.param PR1 = 0.6\n.param PR13 = 0.1\n.param PR20 = 1
TEXT 1048 584 Left 2 !.options method=gear\n.options reltol=0.002 abstol=1n vntol=1u
TEXT 88 904 Left 2 !.param PR28 = 1.0\n.param PR29 = 0.9\n.param PR38 = 1
TEXT 88 848 Left 2 !.param PR49 = 0.9
TEXT 88 1016 Left 2 !.param PR66 = 1.0
TEXT -168 656 Left 2 !.param S1v = 0\n.param S2v = 0\n.param S3v = 0\n.param S4v = 0\n.param S5v = 1\n.param S6v = 0\n.param S7v = 0\n.param S8v = 1\n.param S9v = 0\n.param S10v = 0
TEXT 768 632 Left 2 !.param VBATT = 9\nV1 VCC 0 {VBATT/2}\nV2 VEE 0 {-VBATT/2}\nB_S1  S1  0 V={S1v}\nB_S2  S2  0 V={S2v}\nB_S3  S3  0 V={S3v}\nB_S4  S4  0 V={S4v}\nB_S5  S5  0 V={S5v}\nB_S6  S6  0 V={S6v}\nB_S7  S7  0 V={S7v}\nB_S8  S8  0 V={S8v}\nB_S9  S9  0 V={S9v}\nB_S10 S10 0 V={S10v}
TEXT 1048 640 Left 2 ;.op
TEXT 1048 672 Left 2 !.tran 1 startup
