Version 4.1
SHEET 1 1048 680
WIRE -528 96 -528 64
WIRE 64 96 32 96
WIRE 224 96 160 96
WIRE 64 128 32 128
WIRE 224 128 224 96
WIRE 64 160 32 160
WIRE -528 208 -528 176
WIRE -528 208 -560 208
WIRE -560 224 -560 208
WIRE -528 240 -528 208
WIRE 112 240 112 208
WIRE 224 240 224 208
WIRE -528 352 -528 320
WIRE -368 368 -368 336
WIRE -256 368 -256 336
WIRE 0 368 0 336
WIRE -368 480 -368 448
WIRE -256 480 -256 448
WIRE 0 480 0 448
FLAG -528 64 VCC
FLAG -528 352 VEE
FLAG -560 224 0
FLAG -368 480 0
FLAG -368 336 ADG
FLAG -256 480 0
FLAG -256 336 C
FLAG 112 240 VEE
FLAG 32 96 C
FLAG 32 128 ADG
FLAG 32 160 S5
FLAG 224 240 0
FLAG 0 480 0
FLAG 0 336 S5
FLAG 224 96 A
SYMBOL voltage -528 80 R0
WINDOW 123 0 0 Left 0
WINDOW 39 0 0 Left 0
SYMATTR InstName V1
SYMATTR Value 4.5
SYMBOL voltage -528 224 R0
WINDOW 123 0 0 Left 0
WINDOW 39 0 0 Left 0
SYMATTR InstName V2
SYMATTR Value 4.5
SYMBOL voltage -368 352 R0
WINDOW 3 24 96 Invisible 2
WINDOW 123 0 0 Left 0
WINDOW 39 0 0 Left 0
SYMATTR Value PWL(0 -4.5 5m -4.5 15m 4.5 20m 4.5)
SYMATTR InstName V3
SYMBOL voltage -256 352 R0
WINDOW 123 0 0 Left 0
WINDOW 39 0 0 Left 0
SYMATTR InstName V4
SYMATTR Value SINE(0 10m 1k 0)
SYMBOL VCA 112 144 R0
SYMATTR InstName X1
SYMBOL res 208 112 R0
SYMATTR InstName R1
SYMATTR Value 10k
SYMBOL voltage 0 352 R0
WINDOW 123 0 0 Left 0
WINDOW 39 0 0 Left 0
SYMATTR InstName V5
SYMATTR Value PULSE(0 0 10m 10u 10u 10m 20m)
TEXT -464 -96 Left 2 !.tran 0 20m 0 1u
TEXT -464 -128 Left 2 ;.op
