Version 4.1
SHEET 1 1528 980
WIRE 528 -320 528 -352
WIRE -576 -256 -576 -288
WIRE -448 -256 -448 -288
WIRE -336 -256 -336 -288
WIRE -224 -256 -224 -288
WIRE -112 -256 -112 -288
WIRE -16 -256 -16 -288
WIRE 80 -256 80 -288
WIRE 176 -256 176 -288
WIRE 272 -256 272 -288
WIRE 480 -256 448 -256
WIRE 480 -224 448 -224
WIRE 480 -192 448 -192
WIRE -448 -160 -448 -176
WIRE -336 -160 -336 -176
WIRE -224 -160 -224 -176
WIRE -112 -160 -112 -176
WIRE -16 -160 -16 -176
WIRE 80 -160 80 -176
WIRE 176 -160 176 -176
WIRE 272 -160 272 -176
WIRE 480 -160 432 -160
WIRE -576 -144 -576 -176
WIRE -576 -144 -608 -144
WIRE 608 -144 576 -144
WIRE -608 -128 -608 -144
WIRE 480 -128 432 -128
WIRE -576 -112 -576 -144
WIRE 480 -96 448 -96
WIRE 480 -64 448 -64
WIRE 480 -32 448 -32
WIRE -576 0 -576 -32
WIRE 528 64 528 32
FLAG -576 -288 VCC
FLAG -576 0 VEE
FLAG -608 -128 0
FLAG -336 -160 0
FLAG -336 -288 S4
FLAG -448 -160 0
FLAG -448 -288 S3
FLAG 448 -96 S3
FLAG 448 -64 S4
FLAG 528 64 VEE
FLAG 528 -352 VCC
FLAG 448 -224 RMP
FLAG 448 -256 SQR
FLAG -224 -160 0
FLAG -224 -288 S6
FLAG 432 -160 LFO
FLAG 432 -128 ADG
FLAG 448 -32 S6
FLAG 448 -192 WNS
FLAG 608 -144 C
FLAG -112 -160 0
FLAG -112 -288 SQR
FLAG -16 -160 0
FLAG -16 -288 RMP
FLAG 80 -160 0
FLAG 80 -288 WNS
FLAG 176 -160 0
FLAG 176 -288 LFO
FLAG 272 -160 0
FLAG 272 -288 ADG
SYMBOL voltage -576 -272 R0
WINDOW 123 0 0 Left 0
WINDOW 39 0 0 Left 0
SYMATTR InstName V1
SYMATTR Value 4.5
SYMBOL voltage -576 -128 R0
WINDOW 123 0 0 Left 0
WINDOW 39 0 0 Left 0
SYMATTR InstName V2
SYMATTR Value 4.5
SYMBOL voltage -336 -272 R0
WINDOW 123 0 0 Left 0
WINDOW 39 0 0 Left 0
WINDOW 3 24 44 Left 2
SYMATTR Value 0
SYMATTR InstName V4
SYMBOL voltage -448 -272 R0
WINDOW 123 0 0 Left 0
WINDOW 39 0 0 Left 0
WINDOW 3 24 44 Left 2
SYMATTR Value 0.5
SYMATTR InstName V3
SYMBOL voltage -224 -272 R0
WINDOW 123 0 0 Left 0
WINDOW 39 0 0 Left 0
WINDOW 3 24 44 Left 2
SYMATTR Value 0
SYMATTR InstName V5
SYMBOL VCF 528 -160 R0
SYMATTR InstName X1
SYMATTR SpiceLine PR28={PR28} PR29={PR29} PR38={PR38}
SYMBOL voltage -112 -272 R0
WINDOW 123 24 72 Left 2
WINDOW 39 0 0 Left 0
WINDOW 3 24 44 Left 2
SYMATTR Value2 AC 4
SYMATTR Value 0
SYMATTR InstName V6
SYMBOL voltage -16 -272 R0
WINDOW 123 0 0 Left 0
WINDOW 39 0 0 Left 0
WINDOW 3 24 44 Left 2
SYMATTR Value 0
SYMATTR InstName V7
SYMBOL voltage 80 -272 R0
WINDOW 123 24 72 Left 2
WINDOW 39 0 0 Left 0
WINDOW 3 24 44 Left 2
SYMATTR Value 0
SYMATTR InstName V8
SYMBOL voltage 176 -272 R0
WINDOW 123 24 72 Left 2
WINDOW 39 0 0 Left 0
WINDOW 3 24 44 Left 2
SYMATTR Value {VDC1}
SYMATTR InstName V9
SYMBOL voltage 272 -272 R0
WINDOW 123 0 0 Left 0
WINDOW 39 0 0 Left 0
WINDOW 3 24 44 Left 2
SYMATTR Value 0
SYMATTR InstName V10
TEXT -464 -64 Left 2 ;.tran 0 1 0 startup
TEXT -464 -96 Left 2 ;.op
TEXT -464 0 Left 2 !.param PR28=0 PR29=0.9 PR38=1
TEXT -464 32 Left 2 !.options method=gear
TEXT -464 -32 Left 2 !.ac dec 10 0.1 1Meg
TEXT -464 64 Left 2 !.step param VDC1 -1 2.5 0.1
TEXT -456 128 Left 2 !.meas AC gpk MAX MAG(V(C))\n.meas AC fhi WHEN MAG(V(C))=0.707*gpk FALL=1
