Version 4.1
SHEET 1 1528 980
WIRE 128 -352 96 -352
WIRE 128 -320 80 -320
WIRE 288 -320 256 -320
WIRE 128 -288 80 -288
WIRE 288 -288 256 -288
WIRE -576 -256 -576 -288
WIRE -448 -256 -448 -288
WIRE -336 -256 -336 -288
WIRE -224 -256 -224 -288
WIRE -112 -256 -112 -288
WIRE 128 -256 80 -256
WIRE 128 -224 96 -224
WIRE 208 -176 208 -208
WIRE 240 -176 240 -208
WIRE -448 -160 -448 -176
WIRE -336 -160 -336 -176
WIRE -224 -160 -224 -176
WIRE -112 -160 -112 -176
WIRE -576 -144 -576 -176
WIRE -576 -144 -608 -144
WIRE -608 -128 -608 -144
WIRE -576 -112 -576 -144
WIRE -576 0 -576 -32
FLAG -576 -288 VCC
FLAG -576 0 VEE
FLAG -608 -128 0
FLAG -336 -160 0
FLAG -336 -288 S2
FLAG -448 -160 0
FLAG -448 -288 S1
FLAG 208 -176 S1
FLAG 240 -176 S2
FLAG 96 -224 VEE
FLAG 96 -352 VCC
FLAG 288 -320 RMP
FLAG 288 -288 SQR
FLAG 80 -320 0
FLAG -224 -160 0
FLAG -224 -288 LFO
FLAG 80 -288 LFO
FLAG -112 -160 0
FLAG -112 -288 B
FLAG 80 -256 B
SYMBOL voltage -576 -272 R0
WINDOW 123 0 0 Left 0
WINDOW 39 0 0 Left 0
SYMATTR InstName V1
SYMATTR Value 4.5
SYMBOL voltage -576 -128 R0
WINDOW 123 0 0 Left 0
WINDOW 39 0 0 Left 0
SYMATTR InstName V2
SYMATTR Value 4.5
SYMBOL voltage -336 -272 R0
WINDOW 123 0 0 Left 0
WINDOW 39 0 0 Left 0
WINDOW 3 24 44 Left 2
SYMATTR Value 0
SYMATTR InstName V4
SYMBOL voltage -448 -272 R0
WINDOW 123 0 0 Left 0
WINDOW 39 0 0 Left 0
WINDOW 3 24 44 Left 2
SYMATTR Value 0
SYMATTR InstName V3
SYMBOL VCO 192 -224 R0
SYMATTR SpiceLine PR1={PR1} PR13={PR13} PR20={PR20}
SYMATTR InstName X1
SYMBOL voltage -224 -272 R0
WINDOW 123 0 0 Left 0
WINDOW 39 0 0 Left 0
WINDOW 3 24 44 Invisible 2
SYMATTR Value PULSE(-4.5 4.5 0 1m 1m 50m 100m)
SYMATTR InstName V5
SYMBOL voltage -112 -272 R0
WINDOW 123 0 0 Left 0
WINDOW 39 0 0 Left 0
WINDOW 3 24 44 Invisible 2
SYMATTR Value 0
SYMATTR InstName V6
TEXT -464 -64 Left 2 !.tran 0 1 0 startup
TEXT -464 -96 Left 2 ;.op
TEXT -464 -32 Left 2 !.param PR1=0.5 PR13=0 PR20=1
TEXT -464 0 Left 2 !.options method=gear
