Version 4.1
SHEET 1 1528 980
WIRE -416 -320 -416 -352
WIRE -352 -272 -384 -272
WIRE -576 -256 -576 -288
WIRE -416 -192 -416 -224
WIRE -576 -144 -576 -176
WIRE -576 -144 -608 -144
WIRE -608 -128 -608 -144
WIRE -576 -112 -576 -144
WIRE -576 0 -576 -32
FLAG -576 -288 VCC
FLAG -576 0 VEE
FLAG -608 -128 0
FLAG -352 -272 WNS
FLAG -416 -192 VEE
FLAG -416 -352 VCC
SYMBOL voltage -576 -272 R0
WINDOW 123 0 0 Left 0
WINDOW 39 0 0 Left 0
SYMATTR InstName V1
SYMATTR Value 4.5
SYMBOL voltage -576 -128 R0
WINDOW 123 0 0 Left 0
WINDOW 39 0 0 Left 0
SYMATTR InstName V2
SYMATTR Value 4.5
SYMBOL WhiteNoise -448 -272 R0
SYMATTR InstName X1
TEXT -464 -64 Left 2 !.tran 0 10m 0 1u
TEXT -464 -96 Left 2 ;.op
